ELEMENTS
O  H  C  N  AR
END
SPECIES
CH4 O2 H2O N2 CO CO2
END
REACTIONS
CH4+1.5 O2=>CO+2 H2O                     1.590E+13        0    47.8E+3
FORD /CH4 0.7/
FORD /O2 0.8/
CO+0.5 O2 +0H2O => CO2+0H2O              3.980E+14        0    40.7E+3
FORD /CO 1/
FORD /O2 0.25/
FORD /H2O 0.5/
CO2=>CO+0.5 O2                           5.000E+08        0    40.7e+3
END

