ELEMENTS
O  H  C  N  AR
END
SPECIES
CH4 O2 H2O N2 CO CO2
END
REACTIONS
CH4+1.5 O2=>CO+2 H2O                     2.800E+09        0    48.4E+3
FORD /CH4 -0.3/
FORD /O2 1.3/
CO+0.5 O2 + 0H2O => CO2                  3.980E+14        0    40.0E+3
FORD /CO 1/
FORD /O2 0.25/
FORD /H2O 0.5/
CO2=>CO+0.5 O2                           5.000E+08        0    40.0e+3
END

